NOVO24/1726528/Cargas.dss
! ==========================================================
! CARGAS — mes 01
! BT: UCBT_tab agregada por transformador (kW = ENE/730 h)
! MT: UCMT_tab individual no PAC do consumidor
! fator de escala aplicado: 1
! 0 cargas de MT descartadas por PAC ausente da rede.
! ==========================================================
New Load.BT_365308402_365452395_1 Bus1=node_423774830.1.4 Phases=1 Model=8 zipv=(0.5,0,0.5,1,0,0,0) kv=0.1270 pf=0.92 kW=1.762100 Daily=RES1_25
New Load.BT_365308402_365452395_2 Bus1=node_423774830.2.4 Phases=1 Model=8 zipv=(0.5,0,0.5,1,0,0,0) kv=0.1270 pf=0.92 kW=1.762100 Daily=RES1_25
New Load.BT_365308402_365452395_3 Bus1=node_423774830.3.4 Phases=1 Model=8 zipv=(0.5,0,0.5,1,0,0,0) kv=0.1270 pf=0.92 kW=1.762100 Daily=RES1_25
New Load.BT_365271330_365486206_1 Bus1=node_423775253.1.4 Phases=1 Model=8 zipv=(0.5,0,0.5,1,0,0,0) kv=0.1200 pf=0.92 kW=6.685616 Daily=RES1_25
New Load.BT_365271330_365486206_2 Bus1=node_423775253.2.4 Phases=1 Model=8 zipv=(0.5,0,0.5,1,0,0,0) kv=0.1200 pf=0.92 kW=6.685616 Daily=RES1_25
New Load.BT_365370524_365479436_1 Bus1=node_423724652.1.4 Phases=1 Model=8 zipv=(0.5,0,0.5,1,0,0,0) kv=0.1270 pf=0.92 kW=1.791324 Daily=RES1_25
New Load.BT_365370524_365479436_2 Bus1=node_423724652.2.4 Phases=1 Model=8 zipv=(0.5,0,0.5,1,0,0,0) kv=0.1270 pf=0.92 kW=1.791324 Daily=RES1_25
New Load.BT_365370524_365479436_3 Bus1=node_423724652.3.4 Phases=1 Model=8 zipv=(0.5,0,0.5,1,0,0,0) kv=0.1270 pf=0.92 kW=1.791324 Daily=RES1_25
New Load.BT_365333042_401248536_1 Bus1=node_423778061.1.4 Phases=1 Model=8 zipv=(0.5,0,0.5,1,0,0,0) kv=0.1270 pf=0.92 kW=6.226484 Daily=RES1_25
New Load.BT_365333042_401248536_2 Bus1=node_423778061.2.4 Phases=1 Model=8 zipv=(0.5,0,0.5,1,0,0,0) kv=0.1270 pf=0.92 kW=6.226484 Daily=RES1_25
New Load.BT_365333042_401248536_3 Bus1=node_423778061.3.4 Phases=1 Model=8 zipv=(0.5,0,0.5,1,0,0,0) kv=0.1270 pf=0.92 kW=6.226484 Daily=RES1_25
New Load.BT_365369436_404529152_1 Bus1=node_423775244.1.4 Phases=1 Model=8 zipv=(0.5,0,0.5,1,0,0,0) kv=0.1270 pf=0.92 kW=5.746575 Daily=RES1_25
New Load.BT_365369436_404529152_2 Bus1=node_423775244.2.4 Phases=1 Model=8 zipv=(0.5,0,0.5,1,0,0,0) kv=0.1270 pf=0.92 kW=5.746575 Daily=RES1_25
New Load.BT_365369436_404529152_3 Bus1=node_423775244.3.4 Phases=1 Model=8 zipv=(0.5,0,0.5,1,0,0,0) kv=0.1270 pf=0.92 kW=5.746575 Daily=RES1_25
New Load.BT_365369862_365483389_1 Bus1=node_423773801.1.4 Phases=1 Model=8 zipv=(0.5,0,0.5,1,0,0,0) kv=0.1270 pf=0.92 kW=5.170320 Daily=RES1_25
New Load.BT_365369862_365483389_2 Bus1=node_423773801.2.4 Phases=1 Model=8 zipv=(0.5,0,0.5,1,0,0,0) kv=0.1270 pf=0.92 kW=5.170320 Daily=RES1_25
New Load.BT_365369862_365483389_3 Bus1=node_423773801.3.4 Phases=1 Model=8 zipv=(0.5,0,0.5,1,0,0,0) kv=0.1270 pf=0.92 kW=5.170320 Daily=RES1_25
New Load.BT_365330337_365486091_1 Bus1=node_423774977.1.4 Phases=1 Model=8 zipv=(0.5,0,0.5,1,0,0,0) kv=0.1270 pf=0.92 kW=0.400913 Daily=RES1_25
New Load.BT_365330337_365486091_2 Bus1=node_423774977.2.4 Phases=1 Model=8 zipv=(0.5,0,0.5,1,0,0,0) kv=0.1270 pf=0.92 kW=0.400913 Daily=RES1_25
New Load.BT_365330337_365486091_3 Bus1=node_423774977.3.4 Phases=1 Model=8 zipv=(0.5,0,0.5,1,0,0,0) kv=0.1270 pf=0.92 kW=0.400913 Daily=RES1_25
New Load.BT_365331939_365379461_1 Bus1=node_423776228.1.4 Phases=1 Model=8 zipv=(0.5,0,0.5,1,0,0,0) kv=0.1270 pf=0.92 kW=3.418265 Daily=RES1_25
New Load.BT_365331939_365379461_2 Bus1=node_423776228.2.4 Phases=1 Model=8 zipv=(0.5,0,0.5,1,0,0,0) kv=0.1270 pf=0.92 kW=3.418265 Daily=RES1_25
New Load.BT_365331939_365379461_3 Bus1=node_423776228.3.4 Phases=1 Model=8 zipv=(0.5,0,0.5,1,0,0,0) kv=0.1270 pf=0.92 kW=3.418265 Daily=RES1_25
New Load.BT_365271750_1020692467_1 Bus1=node_423775610.1.4 Phases=1 Model=8 zipv=(0.5,0,0.5,1,0,0,0) kv=0.1270 pf=0.92 kW=8.338356 Daily=RES1_25
New Load.BT_365271750_1020692467_2 Bus1=node_423775610.2.4 Phases=1 Model=8 zipv=(0.5,0,0.5,1,0,0,0) kv=0.1270 pf=0.92 kW=8.338356 Daily=RES1_25
New Load.BT_365271750_1020692467_3 Bus1=node_423775610.3.4 Phases=1 Model=8 zipv=(0.5,0,0.5,1,0,0,0) kv=0.1270 pf=0.92 kW=8.338356 Daily=RES1_25
New Load.BT_365371356_365450927_1 Bus1=node_423719270.1.4 Phases=1 Model=8 zipv=(0.5,0,0.5,1,0,0,0) kv=0.1200 pf=0.92 kW=0.265753 Daily=RES1_25
New Load.BT_365371356_365450927_2 Bus1=node_423719270.2.4 Phases=1 Model=8 zipv=(0.5,0,0.5,1,0,0,0) kv=0.1200 pf=0.92 kW=0.265753 Daily=RES1_25
New Load.BT_365371435_365480235_1 Bus1=node_423764774.1.4 Phases=1 Model=8 zipv=(0.5,0,0.5,1,0,0,0) kv=0.1200 pf=0.92 kW=1.631507 Daily=RES1_25
New Load.BT_365371435_365480235_2 Bus1=node_423764774.2.4 Phases=1 Model=8 zipv=(0.5,0,0.5,1,0,0,0) kv=0.1200 pf=0.92 kW=1.631507 Daily=RES1_25
New Load.BT_365329976_365453730_1 Bus1=node_423775538.1.4 Phases=1 Model=8 zipv=(0.5,0,0.5,1,0,0,0) kv=0.1270 pf=0.92 kW=8.682192 Daily=RES1_25
New Load.BT_365329976_365453730_2 Bus1=node_423775538.2.4 Phases=1 Model=8 zipv=(0.5,0,0.5,1,0,0,0) kv=0.1270 pf=0.92 kW=8.682192 Daily=RES1_25
New Load.BT_365329976_365453730_3 Bus1=node_423775538.3.4 Phases=1 Model=8 zipv=(0.5,0,0.5,1,0,0,0) kv=0.1270 pf=0.92 kW=8.682192 Daily=RES1_25
New Load.BT_365330369_365453611_1 Bus1=node_423772331.1.4 Phases=1 Model=8 zipv=(0.5,0,0.5,1,0,0,0) kv=0.1270 pf=0.92 kW=5.283105 Daily=RES1_25
New Load.BT_365330369_365453611_2 Bus1=node_423772331.2.4 Phases=1 Model=8 zipv=(0.5,0,0.5,1,0,0,0) kv=0.1270 pf=0.92 kW=5.283105 Daily=RES1_25
New Load.BT_365330369_365453611_3 Bus1=node_423772331.3.4 Phases=1 Model=8 zipv=(0.5,0,0.5,1,0,0,0) kv=0.1270 pf=0.92 kW=5.283105 Daily=RES1_25
New Load.BT_365378691_365466445_1 Bus1=node_423776189.1.4 Phases=1 Model=8 zipv=(0.5,0,0.5,1,0,0,0) kv=0.1270 pf=0.92 kW=6.250685 Daily=RES1_25
New Load.BT_365378691_365466445_2 Bus1=node_423776189.2.4 Phases=1 Model=8 zipv=(0.5,0,0.5,1,0,0,0) kv=0.1270 pf=0.92 kW=6.250685 Daily=RES1_25
New Load.BT_365378691_365466445_3 Bus1=node_423776189.3.4 Phases=1 Model=8 zipv=(0.5,0,0.5,1,0,0,0) kv=0.1270 pf=0.92 kW=6.250685 Daily=RES1_25
New Load.BT_365349121_365483328_1 Bus1=node_423773330.1.4 Phases=1 Model=8 zipv=(0.5,0,0.5,1,0,0,0) kv=0.1270 pf=0.92 kW=1.990868 Daily=RES1_25
New Load.BT_365349121_365483328_2 Bus1=node_423773330.2.4 Phases=1 Model=8 zipv=(0.5,0,0.5,1,0,0,0) kv=0.1270 pf=0.92 kW=1.990868 Daily=RES1_25
New Load.BT_365349121_365483328_3 Bus1=node_423773330.3.4 Phases=1 Model=8 zipv=(0.5,0,0.5,1,0,0,0) kv=0.1270 pf=0.92 kW=1.990868 Daily=RES1_25
New Load.BT_365332977_365477913_1 Bus1=node_423723089.1.4 Phases=1 Model=8 zipv=(0.5,0,0.5,1,0,0,0) kv=0.1270 pf=0.92 kW=3.294977 Daily=RES1_25
New Load.BT_365332977_365477913_2 Bus1=node_423723089.2.4 Phases=1 Model=8 zipv=(0.5,0,0.5,1,0,0,0) kv=0.1270 pf=0.92 kW=3.294977 Daily=RES1_25
New Load.BT_365332977_365477913_3 Bus1=node_423723089.3.4 Phases=1 Model=8 zipv=(0.5,0,0.5,1,0,0,0) kv=0.1270 pf=0.92 kW=3.294977 Daily=RES1_25
New Load.BT_365308517_365450936_1 Bus1=node_423721850.1.4 Phases=1 Model=8 zipv=(0.5,0,0.5,1,0,0,0) kv=0.1270 pf=0.92 kW=7.963014 Daily=RES1_25
New Load.BT_365308517_365450936_2 Bus1=node_423721850.2.4 Phases=1 Model=8 zipv=(0.5,0,0.5,1,0,0,0) kv=0.1270 pf=0.92 kW=7.963014 Daily=RES1_25
New Load.BT_365308517_365450936_3 Bus1=node_423721850.3.4 Phases=1 Model=8 zipv=(0.5,0,0.5,1,0,0,0) kv=0.1270 pf=0.92 kW=7.963014 Daily=RES1_25
New Load.BT_365273387_365486128_1 Bus1=node_423772403.1.4 Phases=1 Model=8 zipv=(0.5,0,0.5,1,0,0,0) kv=0.1270 pf=0.92 kW=3.438813 Daily=RES1_25
New Load.BT_365273387_365486128_2 Bus1=node_423772403.2.4 Phases=1 Model=8 zipv=(0.5,0,0.5,1,0,0,0) kv=0.1270 pf=0.92 kW=3.438813 Daily=RES1_25
New Load.BT_365273387_365486128_3 Bus1=node_423772403.3.4 Phases=1 Model=8 zipv=(0.5,0,0.5,1,0,0,0) kv=0.1270 pf=0.92 kW=3.438813 Daily=RES1_25
New Load.BT_365368903_1234726818_1 Bus1=node_423775871.1.4 Phases=1 Model=8 zipv=(0.5,0,0.5,1,0,0,0) kv=0.1270 pf=0.92 kW=9.694977 Daily=RES1_25
New Load.BT_365368903_1234726818_2 Bus1=node_423775871.2.4 Phases=1 Model=8 zipv=(0.5,0,0.5,1,0,0,0) kv=0.1270 pf=0.92 kW=9.694977 Daily=RES1_25
New Load.BT_365368903_1234726818_3 Bus1=node_423775871.3.4 Phases=1 Model=8 zipv=(0.5,0,0.5,1,0,0,0) kv=0.1270 pf=0.92 kW=9.694977 Daily=RES1_25
New Load.BT_365378352_365463585_1 Bus1=node_423721988.1.4 Phases=1 Model=8 zipv=(0.5,0,0.5,1,0,0,0) kv=0.1270 pf=0.92 kW=4.283105 Daily=RES1_25
New Load.BT_365378352_365463585_2 Bus1=node_423721988.2.4 Phases=1 Model=8 zipv=(0.5,0,0.5,1,0,0,0) kv=0.1270 pf=0.92 kW=4.283105 Daily=RES1_25
New Load.BT_365378352_365463585_3 Bus1=node_423721988.3.4 Phases=1 Model=8 zipv=(0.5,0,0.5,1,0,0,0) kv=0.1270 pf=0.92 kW=4.283105 Daily=RES1_25
New Load.BT_365309620_365486217_1 Bus1=node_423776009.1.4 Phases=1 Model=8 zipv=(0.5,0,0.5,1,0,0,0) kv=0.1270 pf=0.92 kW=8.464384 Daily=RES1_25
New Load.BT_365309620_365486217_2 Bus1=node_423776009.2.4 Phases=1 Model=8 zipv=(0.5,0,0.5,1,0,0,0) kv=0.1270 pf=0.92 kW=8.464384 Daily=RES1_25
New Load.BT_365309620_365486217_3 Bus1=node_423776009.3.4 Phases=1 Model=8 zipv=(0.5,0,0.5,1,0,0,0) kv=0.1270 pf=0.92 kW=8.464384 Daily=RES1_25
New Load.BT_365330448_365480665_1 Bus1=node_423206466.1.4 Phases=1 Model=8 zipv=(0.5,0,0.5,1,0,0,0) kv=0.1270 pf=0.92 kW=8.059817 Daily=RES1_25
New Load.BT_365330448_365480665_2 Bus1=node_423206466.2.4 Phases=1 Model=8 zipv=(0.5,0,0.5,1,0,0,0) kv=0.1270 pf=0.92 kW=8.059817 Daily=RES1_25
New Load.BT_365330448_365480665_3 Bus1=node_423206466.3.4 Phases=1 Model=8 zipv=(0.5,0,0.5,1,0,0,0) kv=0.1270 pf=0.92 kW=8.059817 Daily=RES1_25
New Load.BT_365348588_2276562862_1 Bus1=node_423774533.1.4 Phases=1 Model=8 zipv=(0.5,0,0.5,1,0,0,0) kv=0.1270 pf=0.92 kW=0.618721 Daily=RES1_25
New Load.BT_365348588_2276562862_2 Bus1=node_423774533.2.4 Phases=1 Model=8 zipv=(0.5,0,0.5,1,0,0,0) kv=0.1270 pf=0.92 kW=0.618721 Daily=RES1_25
New Load.BT_365348588_2276562862_3 Bus1=node_423774533.3.4 Phases=1 Model=8 zipv=(0.5,0,0.5,1,0,0,0) kv=0.1270 pf=0.92 kW=0.618721 Daily=RES1_25
New Load.BT_365272932_365479730_1 Bus1=node_423738818.1.4 Phases=1 Model=8 zipv=(0.5,0,0.5,1,0,0,0) kv=0.1270 pf=0.92 kW=3.498174 Daily=RES1_25
New Load.BT_365272932_365479730_2 Bus1=node_423738818.2.4 Phases=1 Model=8 zipv=(0.5,0,0.5,1,0,0,0) kv=0.1270 pf=0.92 kW=3.498174 Daily=RES1_25
New Load.BT_365272932_365479730_3 Bus1=node_423738818.3.4 Phases=1 Model=8 zipv=(0.5,0,0.5,1,0,0,0) kv=0.1270 pf=0.92 kW=3.498174 Daily=RES1_25
New Load.BT_365369500_365486147_1 Bus1=node_423772946.1.4 Phases=1 Model=8 zipv=(0.5,0,0.5,1,0,0,0) kv=0.1270 pf=0.92 kW=2.026027 Daily=RES1_25
New Load.BT_365369500_365486147_2 Bus1=node_423772946.2.4 Phases=1 Model=8 zipv=(0.5,0,0.5,1,0,0,0) kv=0.1270 pf=0.92 kW=2.026027 Daily=RES1_25
New Load.BT_365369500_365486147_3 Bus1=node_423772946.3.4 Phases=1 Model=8 zipv=(0.5,0,0.5,1,0,0,0) kv=0.1270 pf=0.92 kW=2.026027 Daily=RES1_25
New Load.BT_365370880_365476350_1 Bus1=node_423776471.1.4 Phases=1 Model=8 zipv=(0.5,0,0.5,1,0,0,0) kv=0.1270 pf=0.92 kW=6.178995 Daily=RES1_25
New Load.BT_365370880_365476350_2 Bus1=node_423776471.2.4 Phases=1 Model=8 zipv=(0.5,0,0.5,1,0,0,0) kv=0.1270 pf=0.92 kW=6.178995 Daily=RES1_25
New Load.BT_365370880_365476350_3 Bus1=node_423776471.3.4 Phases=1 Model=8 zipv=(0.5,0,0.5,1,0,0,0) kv=0.1270 pf=0.92 kW=6.178995 Daily=RES1_25
New Load.BT_365378278_365450065_1 Bus1=node_423744389.1.4 Phases=1 Model=8 zipv=(0.5,0,0.5,1,0,0,0) kv=0.1200 pf=0.92 kW=2.075342 Daily=RES1_25
New Load.BT_365378278_365450065_2 Bus1=node_423744389.2.4 Phases=1 Model=8 zipv=(0.5,0,0.5,1,0,0,0) kv=0.1200 pf=0.92 kW=2.075342 Daily=RES1_25
New Load.BT_365307857_365486225_1 Bus1=node_423217265.1.4 Phases=1 Model=8 zipv=(0.5,0,0.5,1,0,0,0) kv=0.1270 pf=0.92 kW=3.957991 Daily=RES1_25
New Load.BT_365307857_365486225_2 Bus1=node_423217265.2.4 Phases=1 Model=8 zipv=(0.5,0,0.5,1,0,0,0) kv=0.1270 pf=0.92 kW=3.957991 Daily=RES1_25
New Load.BT_365307857_365486225_3 Bus1=node_423217265.3.4 Phases=1 Model=8 zipv=(0.5,0,0.5,1,0,0,0) kv=0.1270 pf=0.92 kW=3.957991 Daily=RES1_25
New Load.BT_365376891_365466353_1 Bus1=node_423774959.1.4 Phases=1 Model=8 zipv=(0.5,0,0.5,1,0,0,0) kv=0.1270 pf=0.92 kW=4.181735 Daily=RES1_25
New Load.BT_365376891_365466353_2 Bus1=node_423774959.2.4 Phases=1 Model=8 zipv=(0.5,0,0.5,1,0,0,0) kv=0.1270 pf=0.92 kW=4.181735 Daily=RES1_25
New Load.BT_365376891_365466353_3 Bus1=node_423774959.3.4 Phases=1 Model=8 zipv=(0.5,0,0.5,1,0,0,0) kv=0.1270 pf=0.92 kW=4.181735 Daily=RES1_25
New Load.BT_365377114_365483378_1 Bus1=node_423776705.1.4 Phases=1 Model=8 zipv=(0.5,0,0.5,1,0,0,0) kv=0.1270 pf=0.92 kW=6.762557 Daily=RES1_25
New Load.BT_365377114_365483378_2 Bus1=node_423776705.2.4 Phases=1 Model=8 zipv=(0.5,0,0.5,1,0,0,0) kv=0.1270 pf=0.92 kW=6.762557 Daily=RES1_25
New Load.BT_365377114_365483378_3 Bus1=node_423776705.3.4 Phases=1 Model=8 zipv=(0.5,0,0.5,1,0,0,0) kv=0.1270 pf=0.92 kW=6.762557 Daily=RES1_25
New Load.BT_365369086_365379442_1 Bus1=node_423775670.1.4 Phases=1 Model=8 zipv=(0.5,0,0.5,1,0,0,0) kv=0.1270 pf=0.92 kW=2.773973 Daily=RES1_25
New Load.BT_365369086_365379442_2 Bus1=node_423775670.2.4 Phases=1 Model=8 zipv=(0.5,0,0.5,1,0,0,0) kv=0.1270 pf=0.92 kW=2.773973 Daily=RES1_25
New Load.BT_365369086_365379442_3 Bus1=node_423775670.3.4 Phases=1 Model=8 zipv=(0.5,0,0.5,1,0,0,0) kv=0.1270 pf=0.92 kW=2.773973 Daily=RES1_25
New Load.BT_365272397_365449650_1 Bus1=node_423723053.1.4 Phases=1 Model=8 zipv=(0.5,0,0.5,1,0,0,0) kv=0.1270 pf=0.92 kW=1.861644 Daily=RES1_25
New Load.BT_365272397_365449650_2 Bus1=node_423723053.2.4 Phases=1 Model=8 zipv=(0.5,0,0.5,1,0,0,0) kv=0.1270 pf=0.92 kW=1.861644 Daily=RES1_25
New Load.BT_365272397_365449650_3 Bus1=node_423723053.3.4 Phases=1 Model=8 zipv=(0.5,0,0.5,1,0,0,0) kv=0.1270 pf=0.92 kW=1.861644 Daily=RES1_25
New Load.BT_365369333_365465628_1 Bus1=node_423776159.1.4 Phases=1 Model=8 zipv=(0.5,0,0.5,1,0,0,0) kv=0.1270 pf=0.92 kW=2.478995 Daily=RES1_25
New Load.BT_365369333_365465628_2 Bus1=node_423776159.2.4 Phases=1 Model=8 zipv=(0.5,0,0.5,1,0,0,0) kv=0.1270 pf=0.92 kW=2.478995 Daily=RES1_25
New Load.BT_365369333_365465628_3 Bus1=node_423776159.3.4 Phases=1 Model=8 zipv=(0.5,0,0.5,1,0,0,0) kv=0.1270 pf=0.92 kW=2.478995 Daily=RES1_25
New Load.BT_365377170_365453733_1 Bus1=node_423775697.1.4 Phases=1 Model=8 zipv=(0.5,0,0.5,1,0,0,0) kv=0.1270 pf=0.92 kW=2.789041 Daily=RES1_25
New Load.BT_365377170_365453733_2 Bus1=node_423775697.2.4 Phases=1 Model=8 zipv=(0.5,0,0.5,1,0,0,0) kv=0.1270 pf=0.92 kW=2.789041 Daily=RES1_25
New Load.BT_365377170_365453733_3 Bus1=node_423775697.3.4 Phases=1 Model=8 zipv=(0.5,0,0.5,1,0,0,0) kv=0.1270 pf=0.92 kW=2.789041 Daily=RES1_25
New Load.BT_365308632_365464081_1 Bus1=node_423738047.1.4 Phases=1 Model=8 zipv=(0.5,0,0.5,1,0,0,0) kv=0.1270 pf=0.92 kW=2.768493 Daily=RES1_25
New Load.BT_365308632_365464081_2 Bus1=node_423738047.2.4 Phases=1 Model=8 zipv=(0.5,0,0.5,1,0,0,0) kv=0.1270 pf=0.92 kW=2.768493 Daily=RES1_25
New Load.BT_365308632_365464081_3 Bus1=node_423738047.3.4 Phases=1 Model=8 zipv=(0.5,0,0.5,1,0,0,0) kv=0.1270 pf=0.92 kW=2.768493 Daily=RES1_25
New Load.BT_365369202_365379440_1 Bus1=node_423773609.1.4 Phases=1 Model=8 zipv=(0.5,0,0.5,1,0,0,0) kv=0.1270 pf=0.92 kW=1.097260 Daily=RES1_25
New Load.BT_365369202_365379440_2 Bus1=node_423773609.2.4 Phases=1 Model=8 zipv=(0.5,0,0.5,1,0,0,0) kv=0.1270 pf=0.92 kW=1.097260 Daily=RES1_25
New Load.BT_365369202_365379440_3 Bus1=node_423773609.3.4 Phases=1 Model=8 zipv=(0.5,0,0.5,1,0,0,0) kv=0.1270 pf=0.92 kW=1.097260 Daily=RES1_25
New Load.BT_365368515_365476356_1 Bus1=node_423775889.1.4 Phases=1 Model=8 zipv=(0.5,0,0.5,1,0,0,0) kv=0.1270 pf=0.92 kW=3.642009 Daily=RES1_25
New Load.BT_365368515_365476356_2 Bus1=node_423775889.2.4 Phases=1 Model=8 zipv=(0.5,0,0.5,1,0,0,0) kv=0.1270 pf=0.92 kW=3.642009 Daily=RES1_25
New Load.BT_365368515_365476356_3 Bus1=node_423775889.3.4 Phases=1 Model=8 zipv=(0.5,0,0.5,1,0,0,0) kv=0.1270 pf=0.92 kW=3.642009 Daily=RES1_25
New Load.BT_365272100_2755099184_1 Bus1=node_423776576.1.4 Phases=1 Model=8 zipv=(0.5,0,0.5,1,0,0,0) kv=0.1270 pf=0.92 kW=3.194977 Daily=RES1_25
New Load.BT_365272100_2755099184_2 Bus1=node_423776576.2.4 Phases=1 Model=8 zipv=(0.5,0,0.5,1,0,0,0) kv=0.1270 pf=0.92 kW=3.194977 Daily=RES1_25
New Load.BT_365272100_2755099184_3 Bus1=node_423776576.3.4 Phases=1 Model=8 zipv=(0.5,0,0.5,1,0,0,0) kv=0.1270 pf=0.92 kW=3.194977 Daily=RES1_25
New Load.BT_365368373_365452441_1 Bus1=node_423775685.1.4 Phases=1 Model=8 zipv=(0.5,0,0.5,1,0,0,0) kv=0.1270 pf=0.92 kW=1.648858 Daily=COM1_26
New Load.BT_365368373_365452441_2 Bus1=node_423775685.2.4 Phases=1 Model=8 zipv=(0.5,0,0.5,1,0,0,0) kv=0.1270 pf=0.92 kW=1.648858 Daily=COM1_26
New Load.BT_365368373_365452441_3 Bus1=node_423775685.3.4 Phases=1 Model=8 zipv=(0.5,0,0.5,1,0,0,0) kv=0.1270 pf=0.92 kW=1.648858 Daily=COM1_26
New Load.BT_365370574_365452425_1 Bus1=node_423777728.1.4 Phases=1 Model=8 zipv=(0.5,0,0.5,1,0,0,0) kv=0.1270 pf=0.92 kW=7.343379 Daily=RES1_25
New Load.BT_365370574_365452425_2 Bus1=node_423777728.2.4 Phases=1 Model=8 zipv=(0.5,0,0.5,1,0,0,0) kv=0.1270 pf=0.92 kW=7.343379 Daily=RES1_25
New Load.BT_365370574_365452425_3 Bus1=node_423777728.3.4 Phases=1 Model=8 zipv=(0.5,0,0.5,1,0,0,0) kv=0.1270 pf=0.92 kW=7.343379 Daily=RES1_25
New Load.BT_365379094_365480621_1 Bus1=node_423774428.1.4 Phases=1 Model=8 zipv=(0.5,0,0.5,1,0,0,0) kv=0.1270 pf=0.92 kW=4.085845 Daily=RES1_25
New Load.BT_365379094_365480621_2 Bus1=node_423774428.2.4 Phases=1 Model=8 zipv=(0.5,0,0.5,1,0,0,0) kv=0.1270 pf=0.92 kW=4.085845 Daily=RES1_25
New Load.BT_365379094_365480621_3 Bus1=node_423774428.3.4 Phases=1 Model=8 zipv=(0.5,0,0.5,1,0,0,0) kv=0.1270 pf=0.92 kW=4.085845 Daily=RES1_25
New Load.BT_1345453815_1345453814_1 Bus1=node_1639471403.1.4 Phases=1 Model=8 zipv=(0.5,0,0.5,1,0,0,0) kv=0.1270 pf=0.92 kW=0.137443 Daily=RES1_25
New Load.BT_1345453815_1345453814_2 Bus1=node_1639471403.2.4 Phases=1 Model=8 zipv=(0.5,0,0.5,1,0,0,0) kv=0.1270 pf=0.92 kW=0.137443 Daily=RES1_25
New Load.BT_1345453815_1345453814_3 Bus1=node_1639471403.3.4 Phases=1 Model=8 zipv=(0.5,0,0.5,1,0,0,0) kv=0.1270 pf=0.92 kW=0.137443 Daily=RES1_25
New Load.BT_365347356_365482118_1 Bus1=node_423723329.1.4 Phases=1 Model=8 zipv=(0.5,0,0.5,1,0,0,0) kv=0.1270 pf=0.92 kW=1.676712 Daily=RES1_25
New Load.BT_365347356_365482118_2 Bus1=node_423723329.2.4 Phases=1 Model=8 zipv=(0.5,0,0.5,1,0,0,0) kv=0.1270 pf=0.92 kW=1.676712 Daily=RES1_25
New Load.BT_365347356_365482118_3 Bus1=node_423723329.3.4 Phases=1 Model=8 zipv=(0.5,0,0.5,1,0,0,0) kv=0.1270 pf=0.92 kW=1.676712 Daily=RES1_25
New Load.BT_365378055_365466441_1 Bus1=node_423775292.1.4 Phases=1 Model=8 zipv=(0.5,0,0.5,1,0,0,0) kv=0.1270 pf=0.92 kW=6.257078 Daily=RES1_25
New Load.BT_365378055_365466441_2 Bus1=node_423775292.2.4 Phases=1 Model=8 zipv=(0.5,0,0.5,1,0,0,0) kv=0.1270 pf=0.92 kW=6.257078 Daily=RES1_25
New Load.BT_365378055_365466441_3 Bus1=node_423775292.3.4 Phases=1 Model=8 zipv=(0.5,0,0.5,1,0,0,0) kv=0.1270 pf=0.92 kW=6.257078 Daily=RES1_25
New Load.BT_365308844_365479296_1 Bus1=node_423721166.1.4 Phases=1 Model=8 zipv=(0.5,0,0.5,1,0,0,0) kv=0.1270 pf=0.92 kW=1.586758 Daily=RES1_25
New Load.BT_365308844_365479296_2 Bus1=node_423721166.2.4 Phases=1 Model=8 zipv=(0.5,0,0.5,1,0,0,0) kv=0.1270 pf=0.92 kW=1.586758 Daily=RES1_25
New Load.BT_365308844_365479296_3 Bus1=node_423721166.3.4 Phases=1 Model=8 zipv=(0.5,0,0.5,1,0,0,0) kv=0.1270 pf=0.92 kW=1.586758 Daily=RES1_25
New Load.BT_365272600_365476232_1 Bus1=node_423772754.1.4 Phases=1 Model=8 zipv=(0.5,0,0.5,1,0,0,0) kv=0.1270 pf=0.92 kW=0.086758 Daily=RES1_25
New Load.BT_365272600_365476232_2 Bus1=node_423772754.2.4 Phases=1 Model=8 zipv=(0.5,0,0.5,1,0,0,0) kv=0.1270 pf=0.92 kW=0.086758 Daily=RES1_25
New Load.BT_365272600_365476232_3 Bus1=node_423772754.3.4 Phases=1 Model=8 zipv=(0.5,0,0.5,1,0,0,0) kv=0.1270 pf=0.92 kW=0.086758 Daily=RES1_25
New Load.BT_365329913_365476336_1 Bus1=node_423775628.1.4 Phases=1 Model=8 zipv=(0.5,0,0.5,1,0,0,0) kv=0.1270 pf=0.92 kW=8.020091 Daily=RES1_25
New Load.BT_365329913_365476336_2 Bus1=node_423775628.2.4 Phases=1 Model=8 zipv=(0.5,0,0.5,1,0,0,0) kv=0.1270 pf=0.92 kW=8.020091 Daily=RES1_25
New Load.BT_365329913_365476336_3 Bus1=node_423775628.3.4 Phases=1 Model=8 zipv=(0.5,0,0.5,1,0,0,0) kv=0.1270 pf=0.92 kW=8.020091 Daily=RES1_25
New Load.BT_365309497_991926894_1 Bus1=node_423772421.1.4 Phases=1 Model=8 zipv=(0.5,0,0.5,1,0,0,0) kv=0.1270 pf=0.92 kW=5.755251 Daily=RES1_25
New Load.BT_365309497_991926894_2 Bus1=node_423772421.2.4 Phases=1 Model=8 zipv=(0.5,0,0.5,1,0,0,0) kv=0.1270 pf=0.92 kW=5.755251 Daily=RES1_25
New Load.BT_365309497_991926894_3 Bus1=node_423772421.3.4 Phases=1 Model=8 zipv=(0.5,0,0.5,1,0,0,0) kv=0.1270 pf=0.92 kW=5.755251 Daily=RES1_25
New Load.BT_365332412_365379450_1 Bus1=node_423775451.1.4 Phases=1 Model=8 zipv=(0.5,0,0.5,1,0,0,0) kv=0.1270 pf=0.92 kW=2.911872 Daily=RES1_25
New Load.BT_365332412_365379450_2 Bus1=node_423775451.2.4 Phases=1 Model=8 zipv=(0.5,0,0.5,1,0,0,0) kv=0.1270 pf=0.92 kW=2.911872 Daily=RES1_25
New Load.BT_365332412_365379450_3 Bus1=node_423775451.3.4 Phases=1 Model=8 zipv=(0.5,0,0.5,1,0,0,0) kv=0.1270 pf=0.92 kW=2.911872 Daily=RES1_25
New Load.BT_365370436_365452444_1 Bus1=node_423775799.1.4 Phases=1 Model=8 zipv=(0.5,0,0.5,1,0,0,0) kv=0.1270 pf=0.92 kW=3.510502 Daily=RES1_25
New Load.BT_365370436_365452444_2 Bus1=node_423775799.2.4 Phases=1 Model=8 zipv=(0.5,0,0.5,1,0,0,0) kv=0.1270 pf=0.92 kW=3.510502 Daily=RES1_25
New Load.BT_365370436_365452444_3 Bus1=node_423775799.3.4 Phases=1 Model=8 zipv=(0.5,0,0.5,1,0,0,0) kv=0.1270 pf=0.92 kW=3.510502 Daily=RES1_25
New Load.BT_365349436_365452413_1 Bus1=node_423774524.1.4 Phases=1 Model=8 zipv=(0.5,0,0.5,1,0,0,0) kv=0.1270 pf=0.92 kW=0.134703 Daily=RES1_25
New Load.BT_365349436_365452413_2 Bus1=node_423774524.2.4 Phases=1 Model=8 zipv=(0.5,0,0.5,1,0,0,0) kv=0.1270 pf=0.92 kW=0.134703 Daily=RES1_25
New Load.BT_365349436_365452413_3 Bus1=node_423774524.3.4 Phases=1 Model=8 zipv=(0.5,0,0.5,1,0,0,0) kv=0.1270 pf=0.92 kW=0.134703 Daily=RES1_25
New Load.BT_365333172_365465010_1 Bus1=node_423721883.1.4 Phases=1 Model=8 zipv=(0.5,0,0.5,1,0,0,0) kv=0.1270 pf=0.92 kW=1.567123 Daily=RES1_25
New Load.BT_365333172_365465010_2 Bus1=node_423721883.2.4 Phases=1 Model=8 zipv=(0.5,0,0.5,1,0,0,0) kv=0.1270 pf=0.92 kW=1.567123 Daily=RES1_25
New Load.BT_365333172_365465010_3 Bus1=node_423721883.3.4 Phases=1 Model=8 zipv=(0.5,0,0.5,1,0,0,0) kv=0.1270 pf=0.92 kW=1.567123 Daily=RES1_25
New Load.BT_365347890_365466453_1 Bus1=node_423776699.1.4 Phases=1 Model=8 zipv=(0.5,0,0.5,1,0,0,0) kv=0.1270 pf=0.92 kW=5.412785 Daily=RES1_25
New Load.BT_365347890_365466453_2 Bus1=node_423776699.2.4 Phases=1 Model=8 zipv=(0.5,0,0.5,1,0,0,0) kv=0.1270 pf=0.92 kW=5.412785 Daily=RES1_25
New Load.BT_365347890_365466453_3 Bus1=node_423776699.3.4 Phases=1 Model=8 zipv=(0.5,0,0.5,1,0,0,0) kv=0.1270 pf=0.92 kW=5.412785 Daily=RES1_25
New Load.BT_365329419_365379458_1 Bus1=node_423776519.1.4 Phases=1 Model=8 zipv=(0.5,0,0.5,1,0,0,0) kv=0.1270 pf=0.92 kW=5.417808 Daily=RES1_25
New Load.BT_365329419_365379458_2 Bus1=node_423776519.2.4 Phases=1 Model=8 zipv=(0.5,0,0.5,1,0,0,0) kv=0.1270 pf=0.92 kW=5.417808 Daily=RES1_25
New Load.BT_365329419_365379458_3 Bus1=node_423776519.3.4 Phases=1 Model=8 zipv=(0.5,0,0.5,1,0,0,0) kv=0.1270 pf=0.92 kW=5.417808 Daily=RES1_25
New Load.BT_365347607_961658770_1 Bus1=node_423757136.1.4 Phases=1 Model=8 zipv=(0.5,0,0.5,1,0,0,0) kv=0.1200 pf=0.92 kW=1.288356 Daily=RUR1_29
New Load.BT_365347607_961658770_2 Bus1=node_423757136.2.4 Phases=1 Model=8 zipv=(0.5,0,0.5,1,0,0,0) kv=0.1200 pf=0.92 kW=1.288356 Daily=RUR1_29
New Load.BT_365309909_365476337_1 Bus1=node_423776054.1.4 Phases=1 Model=8 zipv=(0.5,0,0.5,1,0,0,0) kv=0.1270 pf=0.92 kW=12.129224 Daily=COM1_26
New Load.BT_365309909_365476337_2 Bus1=node_423776054.2.4 Phases=1 Model=8 zipv=(0.5,0,0.5,1,0,0,0) kv=0.1270 pf=0.92 kW=12.129224 Daily=COM1_26
New Load.BT_365309909_365476337_3 Bus1=node_423776054.3.4 Phases=1 Model=8 zipv=(0.5,0,0.5,1,0,0,0) kv=0.1270 pf=0.92 kW=12.129224 Daily=COM1_26
New Load.BT_365308712_365486219_1 Bus1=node_423776111.1.4 Phases=1 Model=8 zipv=(0.5,0,0.5,1,0,0,0) kv=0.1270 pf=0.92 kW=2.957534 Daily=RES1_25
New Load.BT_365308712_365486219_2 Bus1=node_423776111.2.4 Phases=1 Model=8 zipv=(0.5,0,0.5,1,0,0,0) kv=0.1270 pf=0.92 kW=2.957534 Daily=RES1_25
New Load.BT_365308712_365486219_3 Bus1=node_423776111.3.4 Phases=1 Model=8 zipv=(0.5,0,0.5,1,0,0,0) kv=0.1270 pf=0.92 kW=2.957534 Daily=RES1_25
New Load.BT_365333211_365453603_1 Bus1=node_423772337.1.4 Phases=1 Model=8 zipv=(0.5,0,0.5,1,0,0,0) kv=0.1270 pf=0.92 kW=5.701370 Daily=RES1_25
New Load.BT_365333211_365453603_2 Bus1=node_423772337.2.4 Phases=1 Model=8 zipv=(0.5,0,0.5,1,0,0,0) kv=0.1270 pf=0.92 kW=5.701370 Daily=RES1_25
New Load.BT_365333211_365453603_3 Bus1=node_423772337.3.4 Phases=1 Model=8 zipv=(0.5,0,0.5,1,0,0,0) kv=0.1270 pf=0.92 kW=5.701370 Daily=RES1_25
New Load.BT_365329987_365379448_1 Bus1=node_423777983.1.4 Phases=1 Model=8 zipv=(0.5,0,0.5,1,0,0,0) kv=0.1270 pf=0.92 kW=5.211872 Daily=RES1_25
New Load.BT_365329987_365379448_2 Bus1=node_423777983.2.4 Phases=1 Model=8 zipv=(0.5,0,0.5,1,0,0,0) kv=0.1270 pf=0.92 kW=5.211872 Daily=RES1_25
New Load.BT_365329987_365379448_3 Bus1=node_423777983.3.4 Phases=1 Model=8 zipv=(0.5,0,0.5,1,0,0,0) kv=0.1270 pf=0.92 kW=5.211872 Daily=RES1_25
New Load.BT_365331059_365453720_1 Bus1=node_423776279.1.4 Phases=1 Model=8 zipv=(0.5,0,0.5,1,0,0,0) kv=0.1270 pf=0.92 kW=2.867580 Daily=RES1_25
New Load.BT_365331059_365453720_2 Bus1=node_423776279.2.4 Phases=1 Model=8 zipv=(0.5,0,0.5,1,0,0,0) kv=0.1270 pf=0.92 kW=2.867580 Daily=RES1_25
New Load.BT_365331059_365453720_3 Bus1=node_423776279.3.4 Phases=1 Model=8 zipv=(0.5,0,0.5,1,0,0,0) kv=0.1270 pf=0.92 kW=2.867580 Daily=RES1_25
New Load.BT_2036893444_2036893443_1 Bus1=node_2363181558.1.4 Phases=1 Model=8 zipv=(0.5,0,0.5,1,0,0,0) kv=0.1270 pf=0.92 kW=0.340639 Daily=RES1_25
New Load.BT_2036893444_2036893443_2 Bus1=node_2363181558.2.4 Phases=1 Model=8 zipv=(0.5,0,0.5,1,0,0,0) kv=0.1270 pf=0.92 kW=0.340639 Daily=RES1_25
New Load.BT_2036893444_2036893443_3 Bus1=node_2363181558.3.4 Phases=1 Model=8 zipv=(0.5,0,0.5,1,0,0,0) kv=0.1270 pf=0.92 kW=0.340639 Daily=RES1_25
New Load.BT_365369362_365483385_1 Bus1=node_423778019.1.4 Phases=1 Model=8 zipv=(0.5,0,0.5,1,0,0,0) kv=0.1270 pf=0.92 kW=5.440639 Daily=RES1_25
New Load.BT_365369362_365483385_2 Bus1=node_423778019.2.4 Phases=1 Model=8 zipv=(0.5,0,0.5,1,0,0,0) kv=0.1270 pf=0.92 kW=5.440639 Daily=RES1_25
New Load.BT_365369362_365483385_3 Bus1=node_423778019.3.4 Phases=1 Model=8 zipv=(0.5,0,0.5,1,0,0,0) kv=0.1270 pf=0.92 kW=5.440639 Daily=RES1_25
New Load.BT_365348667_365480649_1 Bus1=node_423776150.1.4 Phases=1 Model=8 zipv=(0.5,0,0.5,1,0,0,0) kv=0.1270 pf=0.92 kW=5.541096 Daily=RES1_25
New Load.BT_365348667_365480649_2 Bus1=node_423776150.2.4 Phases=1 Model=8 zipv=(0.5,0,0.5,1,0,0,0) kv=0.1270 pf=0.92 kW=5.541096 Daily=RES1_25
New Load.BT_365348667_365480649_3 Bus1=node_423776150.3.4 Phases=1 Model=8 zipv=(0.5,0,0.5,1,0,0,0) kv=0.1270 pf=0.92 kW=5.541096 Daily=RES1_25
New Load.BT_365350663_365484602_1 Bus1=node_423716723.1.4 Phases=1 Model=8 zipv=(0.5,0,0.5,1,0,0,0) kv=0.1200 pf=0.92 kW=0.345890 Daily=RES1_25
New Load.BT_365350663_365484602_2 Bus1=node_423716723.2.4 Phases=1 Model=8 zipv=(0.5,0,0.5,1,0,0,0) kv=0.1200 pf=0.92 kW=0.345890 Daily=RES1_25
New Load.BT_435515328_435515327_1 Bus1=node_704332475.1.4 Phases=1 Model=8 zipv=(0.5,0,0.5,1,0,0,0) kv=0.1270 pf=0.92 kW=2.088128 Daily=RES1_25
New Load.BT_435515328_435515327_2 Bus1=node_704332475.2.4 Phases=1 Model=8 zipv=(0.5,0,0.5,1,0,0,0) kv=0.1270 pf=0.92 kW=2.088128 Daily=RES1_25
New Load.BT_435515328_435515327_3 Bus1=node_704332475.3.4 Phases=1 Model=8 zipv=(0.5,0,0.5,1,0,0,0) kv=0.1270 pf=0.92 kW=2.088128 Daily=RES1_25
New Load.BT_365272663_365451126_1 Bus1=node_423724238.1.4 Phases=1 Model=8 zipv=(0.5,0,0.5,1,0,0,0) kv=0.1270 pf=0.92 kW=1.901370 Daily=RES1_25
New Load.BT_365272663_365451126_2 Bus1=node_423724238.2.4 Phases=1 Model=8 zipv=(0.5,0,0.5,1,0,0,0) kv=0.1270 pf=0.92 kW=1.901370 Daily=RES1_25
New Load.BT_365272663_365451126_3 Bus1=node_423724238.3.4 Phases=1 Model=8 zipv=(0.5,0,0.5,1,0,0,0) kv=0.1270 pf=0.92 kW=1.901370 Daily=RES1_25
New Load.BT_365272858_365477912_1 Bus1=node_555878993.1.4 Phases=1 Model=8 zipv=(0.5,0,0.5,1,0,0,0) kv=0.1270 pf=0.92 kW=4.047945 Daily=RES1_25
New Load.BT_365272858_365477912_2 Bus1=node_555878993.2.4 Phases=1 Model=8 zipv=(0.5,0,0.5,1,0,0,0) kv=0.1270 pf=0.92 kW=4.047945 Daily=RES1_25
New Load.BT_365272858_365477912_3 Bus1=node_555878993.3.4 Phases=1 Model=8 zipv=(0.5,0,0.5,1,0,0,0) kv=0.1270 pf=0.92 kW=4.047945 Daily=RES1_25
New Load.BT_365377136_365466438_1 Bus1=node_423775406.1.4 Phases=1 Model=8 zipv=(0.5,0,0.5,1,0,0,0) kv=0.1270 pf=0.92 kW=4.571233 Daily=RES1_25
New Load.BT_365377136_365466438_2 Bus1=node_423775406.2.4 Phases=1 Model=8 zipv=(0.5,0,0.5,1,0,0,0) kv=0.1270 pf=0.92 kW=4.571233 Daily=RES1_25
New Load.BT_365377136_365466438_3 Bus1=node_423775406.3.4 Phases=1 Model=8 zipv=(0.5,0,0.5,1,0,0,0) kv=0.1270 pf=0.92 kW=4.571233 Daily=RES1_25
New Load.BT_365370084_365466432_1 Bus1=node_423775565.1.4 Phases=1 Model=8 zipv=(0.5,0,0.5,1,0,0,0) kv=0.1270 pf=0.92 kW=1.495890 Daily=RES1_25
New Load.BT_365370084_365466432_2 Bus1=node_423775565.2.4 Phases=1 Model=8 zipv=(0.5,0,0.5,1,0,0,0) kv=0.1270 pf=0.92 kW=1.495890 Daily=RES1_25
...

! --- cargas de media tensao (UCMT_tab) ---
New Load.MT_node_2689731599_9 Bus1=node_2689731599.1.2.3 Phases=3 Conn=wye Model=8 zipv=(0.5,0,0.5,1,0,0,0) kv=13.8000 pf=0.92 kW=1931.7973 Daily=MT1_1
New Load.MT_node_1889386233_10 Bus1=node_1889386233.1.2.3 Phases=3 Conn=wye Model=8 zipv=(0.5,0,0.5,1,0,0,0) kv=13.8000 pf=0.92 kW=1312.2822 Daily=MT1_1
New Load.MT_node_2749057830_11 Bus1=node_2749057830.1.2.3 Phases=3 Conn=wye Model=8 zipv=(0.5,0,0.5,1,0,0,0) kv=13.8000 pf=0.92 kW=279.3589 Daily=MT1_1
New Load.MT_node_121945559_12 Bus1=node_121945559.1.2.3 Phases=3 Conn=wye Model=8 zipv=(0.5,0,0.5,1,0,0,0) kv=13.8000 pf=0.92 kW=111.7110 Daily=MT1_1
New Load.MT_node_441659828_14 Bus1=node_441659828.1.2.3 Phases=3 Conn=wye Model=8 zipv=(0.5,0,0.5,1,0,0,0) kv=13.8000 pf=0.92 kW=132.9973 Daily=MT3_1
New Load.MT_node_184160175_15 Bus1=node_184160175.1.2.3 Phases=3 Conn=wye Model=8 zipv=(0.5,0,0.5,1,0,0,0) kv=13.8000 pf=0.92 kW=78.9260 Daily=MT1_1
New Load.MT_node_117181836_16 Bus1=node_117181836.1.2.3 Phases=3 Conn=wye Model=8 zipv=(0.5,0,0.5,1,0,0,0) kv=13.8000 pf=0.92 kW=11.2890 Daily=MT1_1
New Load.MT_node_1226113119_17 Bus1=node_1226113119.1.2.3 Phases=3 Conn=wye Model=8 zipv=(0.5,0,0.5,1,0,0,0) kv=13.8000 pf=0.92 kW=56.1918 Daily=MT1_1
New Load.MT_node_121784986_19 Bus1=node_121784986.1.2.3 Phases=3 Conn=wye Model=8 zipv=(0.5,0,0.5,1,0,0,0) kv=13.8000 pf=0.92 kW=49.3685 Daily=MT1_1
New Load.MT_node_109501880_20 Bus1=node_109501880.1.2.3 Phases=3 Conn=wye Model=8 zipv=(0.5,0,0.5,1,0,0,0) kv=13.8000 pf=0.92 kW=52.2329 Daily=MT1_1
New Load.MT_node_109892207_22 Bus1=node_109892207.1.2.3 Phases=3 Conn=wye Model=8 zipv=(0.5,0,0.5,1,0,0,0) kv=13.8000 pf=0.92 kW=39.3151 Daily=MT1_1
New Load.MT_node_444367233_23 Bus1=node_444367233.1.2.3 Phases=3 Conn=wye Model=8 zipv=(0.5,0,0.5,1,0,0,0) kv=13.8000 pf=0.92 kW=29.3425 Daily=MT2_1
New Load.MT_node_109623003_25 Bus1=node_109623003.1.2.3 Phases=3 Conn=wye Model=8 zipv=(0.5,0,0.5,1,0,0,0) kv=13.8000 pf=0.92 kW=30.9466 Daily=MT1_1
New Load.MT_node_426300052_26 Bus1=node_426300052.1.2.3 Phases=3 Conn=wye Model=8 zipv=(0.5,0,0.5,1,0,0,0) kv=13.8000 pf=0.92 kW=23.2521 Daily=MT2_1
New Load.MT_node_435430826_27 Bus1=node_435430826.1.2.3 Phases=3 Conn=wye Model=8 zipv=(0.5,0,0.5,1,0,0,0) kv=13.8000 pf=0.92 kW=31.6438 Daily=MT2_1
New Load.MT_node_2755683641_29 Bus1=node_2755683641.1.2.3 Phases=3 Conn=wye Model=8 zipv=(0.5,0,0.5,1,0,0,0) kv=13.8000 pf=0.92 kW=19.9452 Daily=MT1_1
New Load.MT_node_121945554_30 Bus1=node_121945554.1.2.3 Phases=3 Conn=wye Model=8 zipv=(0.5,0,0.5,1,0,0,0) kv=13.8000 pf=0.92 kW=36.1699 Daily=MT1_1
New Load.MT_node_110016834_31 Bus1=node_110016834.1.2.3 Phases=3 Conn=wye Model=8 zipv=(0.5,0,0.5,1,0,0,0) kv=13.8000 pf=0.92 kW=22.7466 Daily=MT1_1
New Load.MT_node_109759047_32 Bus1=node_109759047.1.2.3 Phases=3 Conn=wye Model=8 zipv=(0.5,0,0.5,1,0,0,0) kv=13.8000 pf=0.92 kW=12.0192 Daily=MT1_1
New Load.MT_node_120635065_33 Bus1=node_120635065.1.2.3 Phases=3 Conn=wye Model=8 zipv=(0.5,0,0.5,1,0,0,0) kv=13.8000 pf=0.92 kW=9.9726 Daily=MT1_1
New Load.MT_node_109893482_34 Bus1=node_109893482.1.2.3 Phases=3 Conn=wye Model=8 zipv=(0.5,0,0.5,1,0,0,0) kv=13.8000 pf=0.92 kW=7.5260 Daily=MT1_1
New Load.MT_node_120033946_35 Bus1=node_120033946.1.2.3 Phases=3 Conn=wye Model=8 zipv=(0.5,0,0.5,1,0,0,0) kv=13.8000 pf=0.92 kW=15.7260 Daily=MT1_1
New Load.MT_node_110019289_36 Bus1=node_110019289.1.2.3 Phases=3 Conn=wye Model=8 zipv=(0.5,0,0.5,1,0,0,0) kv=13.8000 pf=0.92 kW=13.6479 Daily=MT1_1
New Load.MT_node_110017244_37 Bus1=node_110017244.1.2.3 Phases=3 Conn=wye Model=8 zipv=(0.5,0,0.5,1,0,0,0) kv=13.8000 pf=0.92 kW=9.8288 Daily=MT5_1
New Load.MT_node_116865587_38 Bus1=node_116865587.1.2.3 Phases=3 Conn=wye Model=8 zipv=(0.5,0,0.5,1,0,0,0) kv=13.8000 pf=0.92 kW=7.5822 Daily=MT5_1
New Load.MT_node_121785521_39 Bus1=node_121785521.1.2.3 Phases=3 Conn=wye Model=8 zipv=(0.5,0,0.5,1,0,0,0) kv=13.8000 pf=0.92 kW=6.5151 Daily=MT1_1
New Load.MT_node_121784961_40 Bus1=node_121784961.1.2.3 Phases=3 Conn=wye Model=8 zipv=(0.5,0,0.5,1,0,0,0) kv=13.8000 pf=0.92 kW=6.2904 Daily=MT1_1
New Load.MT_node_120773063_41 Bus1=node_120773063.1.2.3 Phases=3 Conn=wye Model=8 zipv=(0.5,0,0.5,1,0,0,0) kv=13.8000 pf=0.92 kW=4.6055 Daily=MT5_1
New Load.MT_node_124522961_44 Bus1=node_124522961.1.2.3 Phases=3 Conn=wye Model=8 zipv=(0.5,0,0.5,1,0,0,0) kv=13.8000 pf=0.92 kW=4.6616 Daily=MT1_1
New Load.MT_node_116722010_45 Bus1=node_116722010.1.2.3 Phases=3 Conn=wye Model=8 zipv=(0.5,0,0.5,1,0,0,0) kv=13.8000 pf=0.92 kW=3.4822 Daily=MT1_1
New Load.MT_node_109759432_46 Bus1=node_109759432.1.2.3 Phases=3 Conn=wye Model=8 zipv=(0.5,0,0.5,1,0,0,0) kv=13.8000 pf=0.92 kW=3.9877 Daily=MT5_1
New Load.MT_node_116565920_47 Bus1=node_116565920.1.2.3 Phases=3 Conn=wye Model=8 zipv=(0.5,0,0.5,1,0,0,0) kv=13.8000 pf=0.92 kW=2.5836 Daily=MT1_1
New Load.MT_node_740768387_48 Bus1=node_740768387.1.2.3 Phases=3 Conn=wye Model=8 zipv=(0.5,0,0.5,1,0,0,0) kv=13.8000 pf=0.92 kW=13.4247 Daily=MT1_1
New Load.MT_node_109760167_49 Bus1=node_109760167.1.2.3 Phases=3 Conn=wye Model=8 zipv=(0.5,0,0.5,1,0,0,0) kv=13.8000 pf=0.92 kW=0.6178 Daily=MT1_1
New Load.MT_node_124525276_51 Bus1=node_124525276.1.2.3 Phases=3 Conn=wye Model=8 zipv=(0.5,0,0.5,1,0,0,0) kv=13.8000 pf=0.92 kW=1.1233 Daily=MT1_1
New Load.MT_node_1743845232_53 Bus1=node_1743845232.1.2.3 Phases=3 Conn=wye Model=8 zipv=(0.5,0,0.5,1,0,0,0) kv=13.8000 pf=0.92 kW=3.3699 Daily=MT1_1
New Load.MT_node_124523461_55 Bus1=node_124523461.1.2.3 Phases=3 Conn=wye Model=8 zipv=(0.5,0,0.5,1,0,0,0) kv=13.8000 pf=0.92 kW=13.1425 Daily=MT1_1
New Load.MT_node_117181226_56 Bus1=node_117181226.1.2.3 Phases=3 Conn=wye Model=8 zipv=(0.5,0,0.5,1,0,0,0) kv=13.8000 pf=0.92 kW=18.7589 Daily=MT1_1
New Load.MT_node_110018324_57 Bus1=node_110018324.1.2.3 Phases=3 Conn=wye Model=8 zipv=(0.5,0,0.5,1,0,0,0) kv=13.8000 pf=0.92 kW=34.2041 Daily=MT1_1
New Load.MT_node_110018014_59 Bus1=node_110018014.1.2.3 Phases=3 Conn=wye Model=8 zipv=(0.5,0,0.5,1,0,0,0) kv=13.8000 pf=0.92 kW=32.6877 Daily=MT1_1
New Load.MT_node_120034301_60 Bus1=node_120034301.1.2.3 Phases=3 Conn=wye Model=8 zipv=(0.5,0,0.5,1,0,0,0) kv=13.8000 pf=0.92 kW=84.8630 Daily=MT1_1
